@<TRIPOS>MOLECULE
cationic.pdb
   32    31     1     0     0
SMALL
bcc


@<TRIPOS>ATOM
      1 C1          -8.1140     0.5500    -0.0550 c3         1 CAT      -0.097100
      2 C2          -6.7690     0.0380     0.4520 c3         1 CAT      -0.079400
      3 H1          -8.2190     0.3490    -1.1430 hc         1 CAT       0.043700
      4 H5          -8.2030     1.6430     0.1240 hc         1 CAT       0.043700
      5 H6          -8.9360     0.0330     0.4830 hc         1 CAT       0.043700
      6 C5          -5.6060     0.7290    -0.2690 c3         1 CAT      -0.082400
      7 H2          -6.7000     0.2310     1.5440 hc         1 CAT       0.041200
      8 H7          -6.7160    -1.0600     0.2800 hc         1 CAT       0.041200
      9 C6          -4.2550     0.2120     0.2440 c3         1 CAT      -0.088400
     10 H8          -5.6830     0.5350    -1.3610 hc         1 CAT       0.053200
     11 H9          -5.6700     1.8260    -0.0950 hc         1 CAT       0.053200
     12 C7          -3.0950     0.9050    -0.4820 c3         1 CAT      -0.109400
     13 H10         -4.2300    -0.8750     0.0510 hc         1 CAT       0.041200
     14 H11         -4.1790     0.4130     1.3350 hc         1 CAT       0.041200
     15 C3          -1.6640     0.6380     0.0670 c3         1 CAT       0.116800
     16 H12         -3.2520     2.0020    -0.3770 hc         1 CAT       0.082700
     17 H13         -3.1450     0.6780    -1.5690 hc         1 CAT       0.082700
     18 H3          -1.6020     1.0130     1.1140 hx         1 CAT       0.097700
     19 H14         -1.0270     1.3230    -0.5400 hx         1 CAT       0.097700
     20 N1          -1.0990    -0.7500    -0.0180 n4         1 CAT      -0.602800
     21 C4          -1.3850    -1.3860    -1.3250 c3         1 CAT       0.087433
     22 H4          -1.0270    -0.7490    -2.1640 hx         1 CAT       0.101922
     23 H15         -2.4730    -1.5650    -1.4590 hx         1 CAT       0.101922
     24 H16         -0.8850    -2.3770    -1.4070 hx         1 CAT       0.101922
     25 C8           0.3750    -0.6460     0.1310 c3         1 CAT       0.087433
     26 H17          0.6490    -0.1700     1.1000 hx         1 CAT       0.101922
     27 H18          0.8240    -0.0370    -0.6860 hx         1 CAT       0.101922
     28 H19          0.8610    -1.6480     0.0960 hx         1 CAT       0.101922
     29 C9          -1.5850    -1.6160     1.0850 c3         1 CAT       0.087433
     30 H20         -2.6600    -1.8360     1.0230 hx         1 CAT       0.101922
     31 H21         -1.3860    -1.1520     2.0770 hx         1 CAT       0.101922
     32 H22         -1.0760    -2.6060     1.0680 hx         1 CAT       0.101922
@<TRIPOS>BOND
     1     1     2 1   
     2     1     3 1   
     3     1     4 1   
     4     1     5 1   
     5     2     6 1   
     6     2     7 1   
     7     2     8 1   
     8     6     9 1   
     9     6    10 1   
    10     6    11 1   
    11     9    12 1   
    12     9    13 1   
    13     9    14 1   
    14    12    15 1   
    15    12    16 1   
    16    12    17 1   
    17    15    18 1   
    18    15    19 1   
    19    15    20 1   
    20    20    21 1   
    21    20    25 1   
    22    20    29 1   
    23    21    22 1   
    24    21    23 1   
    25    21    24 1   
    26    25    26 1   
    27    25    27 1   
    28    25    28 1   
    29    29    30 1   
    30    29    31 1   
    31    29    32 1   
@<TRIPOS>SUBSTRUCTURE
     1 CAT         1 TEMP              0 ****  ****    0 ROOT
