@<TRIPOS>MOLECULE
anionic.pdb
   24    23     1     0     0
SMALL
bcc


@<TRIPOS>ATOM
      1 C1          -8.3300     0.3540    -0.0200 c3         1 ANI      -0.089100
      2 C2          -6.9590     0.0660     0.5850 c3         1 ANI      -0.082400
      3 H1          -8.4040    -0.0900    -1.0360 hc         1 ANI       0.023033
      4 H3          -8.5000     1.4500    -0.0870 hc         1 ANI       0.023033
      5 H4          -9.1200    -0.0900     0.6200 hc         1 ANI       0.023033
      6 C3          -5.8380     0.6650    -0.2720 c3         1 ANI      -0.075400
      7 H2          -6.9200     0.5010     1.6080 hc         1 ANI       0.040700
      8 H5          -6.8240    -1.0350     0.6610 hc         1 ANI       0.040700
      9 C4          -4.4630     0.3740     0.3400 c3         1 ANI      -0.079400
     10 H6          -5.8850     0.2280    -1.2940 hc         1 ANI       0.026700
     11 H7          -5.9810     1.7660    -0.3460 hc         1 ANI       0.026700
     12 C5          -3.3410     0.9750    -0.5190 c3         1 ANI      -0.083400
     13 H8          -4.3240    -0.7270     0.4150 hc         1 ANI       0.056200
     14 H9          -4.4160     0.8100     1.3620 hc         1 ANI       0.056200
     15 CS          -1.9590     0.7090     0.0820 c3         1 ANI       0.203400
     16 H10         -3.4870     2.0750    -0.5920 hc         1 ANI       0.019200
     17 H11         -3.3800     0.5450    -1.5430 hc         1 ANI       0.019200
     18 HS          -1.9230     1.1580     1.1010 h1         1 ANI      -0.013800
     19 H12         -1.2040     1.1950    -0.5760 h1         1 ANI      -0.013800
     20 OS          -1.7260    -0.6780     0.1400 os         1 ANI      -0.529500
     21 S1          -0.1660    -0.9080     0.8450 s6         1 ANI       0.356300
     22 O1          -1.1710    -1.6810     1.7130 o          1 ANI      -0.315867
     23 O2          -0.1560    -1.6240    -0.5150 o          1 ANI      -0.315867
     24 O3           0.4720    -2.4810     1.0960 o          1 ANI      -0.315867
@<TRIPOS>BOND
     1     1     2 1   
     2     1     3 1   
     3     1     4 1   
     4     1     5 1   
     5     2     6 1   
     6     2     7 1   
     7     2     8 1   
     8     6     9 1   
     9     6    10 1   
    10     6    11 1   
    11     9    12 1   
    12     9    13 1   
    13     9    14 1   
    14    12    15 1   
    15    12    16 1   
    16    12    17 1   
    17    15    18 1   
    18    15    19 1   
    19    15    20 1   
    20    20    21 1   
    21    21    22 1   
    22    21    23 1   
    23    21    24 1   
@<TRIPOS>SUBSTRUCTURE
     1 ANI         1 TEMP              0 ****  ****    0 ROOT
