@<TRIPOS>MOLECULE
anionic.pdb
 24 23 0 0 0
SMALL
GASTEIGER

@<TRIPOS>ATOM
      1 C1         -8.3300    0.3540   -0.0200 C.3     1  ANI1       -0.0653
      2 C2         -6.9590    0.0660    0.5850 C.3     1  ANI1       -0.0559
      3 H1         -8.4040   -0.0900   -1.0360 H       1  ANI1        0.0230
      4 H1         -8.5000    1.4500   -0.0870 H       1  ANI1        0.0230
      5 H1         -9.1200   -0.0900    0.6200 H       1  ANI1        0.0230
      6 C2         -5.8380    0.6650   -0.2720 C.3     1  ANI1       -0.0532
      7 H2         -6.9200    0.5010    1.6080 H       1  ANI1        0.0263
      8 H2         -6.8240   -1.0350    0.6610 H       1  ANI1        0.0263
      9 C2         -4.4630    0.3740    0.3400 C.3     1  ANI1       -0.0509
     10 H2         -5.8850    0.2280   -1.2940 H       1  ANI1        0.0265
     11 H2         -5.9810    1.7660   -0.3460 H       1  ANI1        0.0265
     12 C2         -3.3410    0.9750   -0.5190 C.3     1  ANI1       -0.0273
     13 H2         -4.3240   -0.7270    0.4150 H       1  ANI1        0.0266
     14 H2         -4.4160    0.8100    1.3620 H       1  ANI1        0.0266
     15 CS         -1.9590    0.7090    0.0820 C.3     1  ANI1        0.0734
     16 H2         -3.4870    2.0750   -0.5920 H       1  ANI1        0.0288
     17 H2         -3.3800    0.5450   -1.5430 H       1  ANI1        0.0288
     18 HS         -1.9230    1.1580    1.1010 H       1  ANI1        0.0582
     19 HS         -1.2040    1.1950   -0.5760 H       1  ANI1        0.0582
     20 OS         -1.7260   -0.6780    0.1400 O.3     1  ANI1       -0.2690
     21 S1         -0.1660   -0.9080    0.8450 S.3     1  ANI1       -0.0923
     22 O1         -1.1710   -1.6810    1.7130 O.3     1  ANI1       -0.2838
     23 O1         -0.1560   -1.6240   -0.5150 O.3     1  ANI1       -0.2838
     24 O1          0.4720   -2.4810    1.0960 O.3     1  ANI1       -0.2838
@<TRIPOS>BOND
     1     1     2    1
     2     1     3    1
     3     1     4    1
     4     1     5    1
     5     2     6    1
     6     2     7    1
     7     2     8    1
     8     6     9    1
     9     6    10    1
    10     6    11    1
    11     9    12    1
    12     9    13    1
    13     9    14    1
    14    12    15    1
    15    12    16    1
    16    12    17    1
    17    15    18    1
    18    15    19    1
    19    15    20    1
    20    20    21    1
    21    21    22    1
    22    21    23    1
    23    21    24    1
