@<TRIPOS>MOLECULE
cationic.pdb
 32 31 0 0 0
SMALL
GASTEIGER

@<TRIPOS>ATOM
      1 C1         -8.1140    0.5500   -0.0550 C.3     1  CAT1       -0.0653
      2 C2         -6.7690    0.0380    0.4520 C.3     1  CAT1       -0.0559
      3 H1         -8.2190    0.3490   -1.1430 H       1  CAT1        0.0230
      4 H1         -8.2030    1.6430    0.1240 H       1  CAT1        0.0230
      5 H1         -8.9360    0.0330    0.4830 H       1  CAT1        0.0230
      6 C2         -5.6060    0.7290   -0.2690 C.3     1  CAT1       -0.0534
      7 H2         -6.7000    0.2310    1.5440 H       1  CAT1        0.0263
      8 H2         -6.7160   -1.0600    0.2800 H       1  CAT1        0.0263
      9 C2         -4.2550    0.2120    0.2440 C.3     1  CAT1       -0.0547
     10 H2         -5.6830    0.5350   -1.3610 H       1  CAT1        0.0265
     11 H2         -5.6700    1.8260   -0.0950 H       1  CAT1        0.0265
     12 C2         -3.0950    0.9050   -0.4820 C.3     1  CAT1       -0.0676
     13 H2         -4.2300   -0.8750    0.0510 H       1  CAT1        0.0265
     14 H2         -4.1790    0.4130    1.3350 H       1  CAT1        0.0265
     15 C3         -1.6640    0.6380    0.0670 C.3     1  CAT1       -0.0889
     16 H2         -3.2520    2.0020   -0.3770 H       1  CAT1        0.0247
     17 H2         -3.1450    0.6780   -1.5690 H       1  CAT1        0.0247
     18 H3         -1.6020    1.0130    1.1140 H       1  CAT1        0.0064
     19 H3         -1.0270    1.3230   -0.5400 H       1  CAT1        0.0064
     20 N1         -1.0990   -0.7500   -0.0180 N.4     1  CAT1        0.3744
     21 C4         -1.3850   -1.3860   -1.3250 C.3     1  CAT1       -0.1012
     22 H4         -1.0270   -0.7490   -2.1640 H       1  CAT1        0.0028
     23 H4         -2.4730   -1.5650   -1.4590 H       1  CAT1        0.0028
     24 H4         -0.8850   -2.3770   -1.4070 H       1  CAT1        0.0028
     25 C4          0.3750   -0.6460    0.1310 C.3     1  CAT1       -0.1012
     26 H4          0.6490   -0.1700    1.1000 H       1  CAT1        0.0028
     27 H4          0.8240   -0.0370   -0.6860 H       1  CAT1        0.0028
     28 H4          0.8610   -1.6480    0.0960 H       1  CAT1        0.0028
     29 C4         -1.5850   -1.6160    1.0850 C.3     1  CAT1       -0.1012
     30 H4         -2.6600   -1.8360    1.0230 H       1  CAT1        0.0028
     31 H4         -1.3860   -1.1520    2.0770 H       1  CAT1        0.0028
     32 H4         -1.0760   -2.6060    1.0680 H       1  CAT1        0.0028
@<TRIPOS>BOND
     1     1     2    1
     2     1     3    1
     3     1     4    1
     4     1     5    1
     5     2     6    1
     6     2     7    1
     7     2     8    1
     8     6     9    1
     9     6    10    1
    10     6    11    1
    11     9    12    1
    12     9    13    1
    13     9    14    1
    14    12    15    1
    15    12    16    1
    16    12    17    1
    17    15    18    1
    18    15    19    1
    19    15    20    1
    20    20    21    1
    21    20    25    1
    22    20    29    1
    23    21    22    1
    24    21    23    1
    25    21    24    1
    26    25    26    1
    27    25    27    1
    28    25    28    1
    29    29    30    1
    30    29    31    1
    31    29    32    1
