@<TRIPOS>MOLECULE
hexane.pdb
   20    19     1     0     0
SMALL
bcc


@<TRIPOS>ATOM
      1 C1          -8.1550     0.5350    -0.1160 c3         1 HEX      -0.092100
      2 C2          -6.8140     0.1050     0.4710 c3         1 HEX      -0.080400
      3 H1          -8.2130     0.2570    -1.1900 hc         1 HEX       0.032700
      4 H3          -8.2870     1.6330    -0.0160 hc         1 HEX       0.032700
      5 H4          -8.9790     0.0260     0.4270 hc         1 HEX       0.032700
      6 C4          -5.6480     0.7870    -0.2540 c3         1 HEX      -0.079400
      7 H2          -6.7920     0.3750     1.5500 hc         1 HEX       0.038700
      8 H8          -6.7180    -0.9980     0.3770 hc         1 HEX       0.038700
      9 C5          -4.3020     0.3540     0.3390 c3         1 HEX      -0.079400
     10 H9          -5.6780     0.5170    -1.3330 hc         1 HEX       0.038700
     11 H10         -5.7530     1.8910    -0.1590 hc         1 HEX       0.038700
     12 C6          -3.1370     1.0360    -0.3860 c3         1 HEX      -0.080400
     13 H11         -4.1980    -0.7500     0.2440 hc         1 HEX       0.038700
     14 H12         -4.2720     0.6250     1.4180 hc         1 HEX       0.038700
     15 C3          -1.7950     0.6070     0.2020 c3         1 HEX      -0.092100
     16 H13         -3.2330     2.1400    -0.2920 hc         1 HEX       0.038700
     17 H14         -3.1580     0.7660    -1.4650 hc         1 HEX       0.038700
     18 H5          -1.7380     0.8850     1.2760 hc         1 HEX       0.032700
     19 H6          -0.9710     1.1150    -0.3420 hc         1 HEX       0.032700
     20 H7          -1.6630    -0.4920     0.1010 hc         1 HEX       0.032700
@<TRIPOS>BOND
     1     1     2 1   
     2     1     3 1   
     3     1     4 1   
     4     1     5 1   
     5     2     6 1   
     6     2     7 1   
     7     2     8 1   
     8     6     9 1   
     9     6    10 1   
    10     6    11 1   
    11     9    12 1   
    12     9    13 1   
    13     9    14 1   
    14    12    15 1   
    15    12    16 1   
    16    12    17 1   
    17    15    18 1   
    18    15    19 1   
    19    15    20 1   
@<TRIPOS>SUBSTRUCTURE
     1 HEX         1 TEMP              0 ****  ****    0 ROOT
