@<TRIPOS>MOLECULE
hexane.pdb
 20 19 0 0 0
SMALL
GASTEIGER

@<TRIPOS>ATOM
      1 C1         -8.1550    0.5350   -0.1160 C.3     1  HEX1       -0.0653
      2 C2         -6.8140    0.1050    0.4710 C.3     1  HEX1       -0.0559
      3 H1         -8.2130    0.2570   -1.1900 H       1  HEX1        0.0230
      4 H1         -8.2870    1.6330   -0.0160 H       1  HEX1        0.0230
      5 H1         -8.9790    0.0260    0.4270 H       1  HEX1        0.0230
      6 C2         -5.6480    0.7870   -0.2540 C.3     1  HEX1       -0.0533
      7 H2         -6.7920    0.3750    1.5500 H       1  HEX1        0.0263
      8 H2         -6.7180   -0.9980    0.3770 H       1  HEX1        0.0263
      9 C2         -4.3020    0.3540    0.3390 C.3     1  HEX1       -0.0533
     10 H2         -5.6780    0.5170   -1.3330 H       1  HEX1        0.0265
     11 H2         -5.7530    1.8910   -0.1590 H       1  HEX1        0.0265
     12 C2         -3.1370    1.0360   -0.3860 C.3     1  HEX1       -0.0559
     13 H2         -4.1980   -0.7500    0.2440 H       1  HEX1        0.0265
     14 H2         -4.2720    0.6250    1.4180 H       1  HEX1        0.0265
     15 C1         -1.7950    0.6070    0.2020 C.3     1  HEX1       -0.0653
     16 H2         -3.2330    2.1400   -0.2920 H       1  HEX1        0.0263
     17 H2         -3.1580    0.7660   -1.4650 H       1  HEX1        0.0263
     18 H1         -1.7380    0.8850    1.2760 H       1  HEX1        0.0230
     19 H1         -0.9710    1.1150   -0.3420 H       1  HEX1        0.0230
     20 H1         -1.6630   -0.4920    0.1010 H       1  HEX1        0.0230
@<TRIPOS>BOND
     1     1     2    1
     2     1     3    1
     3     1     4    1
     4     1     5    1
     5     2     6    1
     6     2     7    1
     7     2     8    1
     8     6     9    1
     9     6    10    1
    10     6    11    1
    11     9    12    1
    12     9    13    1
    13     9    14    1
    14    12    15    1
    15    12    16    1
    16    12    17    1
    17    15    18    1
    18    15    19    1
    19    15    20    1
